!----------------------------------------------------------------------------------
! Users should add all user specific namelist changes below in the form of 
! namelist_var = new_namelist_value 
!
! Include namelist variables for drv_flds_in ONLY if -megan and/or -drydep options
! are set in the CLM_NAMELIST_OPTS env variable.
!
! EXCEPTIONS: 
! Set co2_ppmv           with CCSM_CO2_PPMV                      option
! Set co2_type           with CLM_CO2_TYPE                       option
! Set dtime              with L_NCPL                             option
! Set fatmlndfrc         with LND_DOMAIN_PATH/LND_DOMAIN_FILE    options
! Set finidat            with RUN_REFCASE/RUN_REFDATE/RUN_REFTOD options for hybrid or branch cases
!                        (includes $inst_string for multi-ensemble cases)
!                        Also use CLM_FORCE_COLDSTART='on' to startup
!                        with arbitrary initial conditions (finidat = ' ')
! Set glc_grid           with CISM_GRID                          option
! Set glc_smb            with GLC_SMB                            option
! Set maxpatch_glcmec    with GLC_NEC                            option
!----------------------------------------------------------------------------------


!! Discover Root
!finidat = '/discover/nobackup/etwolf/models/ExoCAM/cesm1.2.1/initial_files/mars/lnd/paleo_mars_1.0bar_dry.clm2.r.0021-01-01-00000.nc'
!finidat ='/discover/nobackup/etwolf/models/ExoCAM/cesm1.2.1/initial_files/cam_land_fv/landplanet_q0_wt10.clm2.r.nc'
!finidat = '/discover/nobackup/etwolf/cesm_scratch/archive/mars_dev2/rest/0001-03-01-00000/mars_dev2.clm2.r.0001-03-01-00000.nc'

!fsurdat  = '/discover/nobackup/etwolf/models/ExoCAM/cesm1.2.1/initial_files/mars/lnd/surfdata_4x5_mars_noglacier_sc3_r0.01.nc'
!fsurdat  = '/discover/nobackup/etwolf/models/ExoCAM/cesm1.2.1/initial_files/mars/lnd/surfdata_4x5_mars_polarglaciers_sc21_r0.01_ti250.nc'
!fsurdat  = '/discover/nobackup/etwolf/models/ExoCAM/cesm1.2.1/initial_files/mars/lnd/surfdata_4x5_mars_polarlakes_sc21_r0.01_ti250.nc'
fsurdat  = '/discover/nobackup/etwolf/models/ExoCAM/cesm1.2.1/initial_files/mars/lnd/surfdata_4x5_mars_noglacier_sc21_r0.01_ti250.nc'
!fsurdat = '/discover/nobackup/etwolf/models/ExoCAM/cesm1.2.1/initial_files/cam_land_fv/surfdata_4x5_dune_fmax0.5_sc5.nc'

! outputs 
hist_mfilt = 1
hist_nhtfrq = 0
hist_avgflag_pertape = 'A'


! ice
! these are now set via exoplanet_mod
! this is duplicative
!albice = 0.4,0.4
