!----------------------------------------------------------------------------------
! Users should add all user specific namelist changes below in the form of 
!   namelist_var = new_namelist_value 
! Note - that it does not matter what namelist group the namelist_var belongs to
!----------------------------------------------------------------------------------

!!
!! domain settings
!! 
grid_file = '/discover/nobackup/etwolf/models/ExoCAM/cesm1.2.1/initial_files/cam_aqua_se/domain.ocn.ne5np4_gx3v7.140810_aquaplanet.nc'
grid_format = 'nc'
grid_type = 'latlon'
gridcpl_file = 'unknown_gridcpl_file'
kcatbound =  0
kmt_file = '/discover/nobackup/etwolf/models/ExoCAM/cesm1.2.1/initial_files/cam_aqua_se/domain.ocn.ne5np4_gx3v7.140810_aquaplanet.nc'

!!
!! albedo settings
!!
shortwave = 'default'
albedo_type = 'default'
albicei = 0.30    !0.3
albicev = 0.67    !0.68
albsnowi = 0.68   !0.63
albsnowv = 0.8   !0.91
