!----------------------------------------------------------------------------------
! Users should add all user specific namelist changes below in the form of 
!   namelist_var = new_namelist_value 
! Note - that it does not matter what namelist group the namelist_var belongs to
!----------------------------------------------------------------------------------

ice_ic = '/discover/nobackup/etwolf/models/ExoCAM/cesm1.2.1/initial_files/cam_mixed_fv/iced.0001-01-01.gx3v7_20080212' 
grid_file = '/discover/nobackup/etwolf/models/ExoCAM/cesm1.2.1/initial_files/cam_mixed_fv/horiz_grid_20030806.ieeer8'
grid_format = 'bin'
grid_type = 'displaced_pole'
gridcpl_file = 'unknown_gridcpl_file'
kcatbound =  0
kmt_file = '/discover/nobackup/etwolf/models/ExoCAM/cesm1.2.1/initial_files/cam_mixed_fv/topography_20100105.ieeei4'

shortwave = 'default'
albedo_type = 'default'
albicei = 0.30    !0.3
albicev = 0.67    !0.68
albsnowi = 0.68   !0.63
albsnowv = 0.8   !0.91
